15
T
C       -4.267497    0.011181   -0.548500
C       -3.645552    0.016211    0.651486
C       -2.189950    0.001741    0.661825
C       -2.193403   -0.020671   -1.811084
C       -4.364427    0.035614    1.959017
N       -3.574986   -0.006688   -1.731214
N       -1.579461   -0.016783   -0.578743
O       -1.521286    0.005486    1.697236
O       -1.595491   -0.034912   -2.872227
H       -4.055531   -0.009332   -2.615341
H       -0.537638   -0.027341   -0.593275
H       -5.344736    0.021211   -0.637566
H       -4.097742   -0.835981    2.554719
H       -4.080519    0.912894    2.538179
H       -5.442211    0.044829    1.809881

